<?xml version="1.0" encoding="UTF-8"?>

<!-- generated on 2025-05-03 16:15:16 by Eclipse SUMO netedit Version 1.22.0
<neteditConfiguration xmlns:xsi="http://www.w3.org/2001/XMLSchema-instance" xsi:noNamespaceSchemaLocation="http://sumo.dlr.de/xsd/neteditConfiguration.xsd">

    <input>
        <sumocfg-file value="C:\Users\edial\Documents\test\test1.sumocfg"/>
        <route-files value="C:\Users\edial\Documents\test\test1.rou.xml"/>
        <sumo-net-file value="C:\Users\edial\Documents\test\test1.net.xml"/>
    </input>

    <output>
        <output-file value="C:\Users\edial\Documents\test\test1.net.xml"/>
    </output>

    <processing>
        <offset.disable-normalization value="true"/>
    </processing>

    <junctions>
        <no-internal-links value="false"/>
        <no-turnarounds value="true"/>
    </junctions>

    <netedit>
        <new-network value="false"/>
    </netedit>

</neteditConfiguration>
-->

<net version="1.20" junctionCornerDetail="5" limitTurnSpeed="5.50" xmlns:xsi="http://www.w3.org/2001/XMLSchema-instance" xsi:noNamespaceSchemaLocation="http://sumo.dlr.de/xsd/net_file.xsd">

    <location netOffset="0.00,0.00" convBoundary="-89.98,-46.58,78.21,44.17" origBoundary="10000000000.00,10000000000.00,-10000000000.00,-10000000000.00" projParameter="!"/>

    <edge id=":J11_w0" function="walkingarea">
        <lane id=":J11_w0_0" index="0" allow="pedestrian" speed="2.78" length="8.40" width="2.00" shape="-89.98,6.33 -89.98,4.33 -89.98,14.73 -89.98,12.73"/>
    </edge>
    <edge id=":clusterJ12_J23_0" function="internal">
        <lane id=":clusterJ12_J23_0_0" index="0" disallow="pedestrian" speed="13.89" length="6.96" shape="-28.54,11.14 -35.51,11.13"/>
    </edge>
    <edge id=":clusterJ12_J23_1" function="internal">
        <lane id=":clusterJ12_J23_1_0" index="0" disallow="pedestrian" speed="7.22" length="7.14" shape="-35.51,7.93 -34.00,7.32 -32.89,5.50 -32.17,2.47 -32.15,2.21"/>
    </edge>
    <edge id=":clusterJ12_J23_2" function="internal">
        <lane id=":clusterJ12_J23_2_0" index="0" disallow="pedestrian" speed="13.89" length="6.98" shape="-35.51,7.93 -28.53,7.94"/>
    </edge>
    <edge id=":clusterJ12_J23_3" function="internal">
        <lane id=":clusterJ12_J23_3_0" index="0" disallow="pedestrian" speed="7.22" length="4.00" shape="-32.15,2.21 -31.85,-1.79"/>
    </edge>
    <edge id=":clusterJ12_J23_c0" function="crossing" crossingEdges="E6 -E6">
        <lane id=":clusterJ12_J23_c0_0" index="0" allow="pedestrian" speed="2.78" length="6.40" width="4.00" shape="-30.52,6.34 -30.55,12.74" outlineShape="-28.52,6.34 -28.55,12.74 -32.55,12.73 -35.51,12.73 -35.51,14.73 -28.56,14.74 -28.55,12.84 -32.55,12.73 -32.52,6.33 -29.98,3.96 -29.92,4.32 -29.57,5.44 -29.11,6.12"/>
    </edge>
    <edge id=":clusterJ12_J23_c1" function="crossing" crossingEdges="E10">
        <lane id=":clusterJ12_J23_c1_0" index="0" allow="pedestrian" speed="2.78" length="3.20" width="4.00" shape="-33.50,0.17 -30.30,0.26" outlineShape="-33.55,-1.83 -30.15,-1.74 -30.26,0.72 -30.18,2.26 -33.72,2.17 -33.56,0.67"/>
    </edge>
    <edge id=":clusterJ12_J23_c2" function="crossing" crossingEdges="-E4 E4">
        <lane id=":clusterJ12_J23_c2_0" index="0" allow="pedestrian" speed="2.78" length="6.40" width="4.00" shape="-33.51,12.73 -33.51,6.33" outlineShape="-35.51,12.83 -35.51,6.23 -34.94,6.10 -34.46,5.42 -34.07,4.29 -33.99,3.87 -31.51,6.33 -31.51,12.73"/>
    </edge>
    <edge id=":clusterJ12_J23_w0" function="walkingarea">
        <lane id=":clusterJ12_J23_w0_0" index="0" allow="pedestrian" speed="2.78" length="4.08" width="4.00" shape="-31.51,12.73 -35.51,12.73 -35.51,14.73 -28.56,14.74 -28.55,12.74 -32.55,12.73"/>
    </edge>
    <edge id=":clusterJ12_J23_w1" function="walkingarea">
        <lane id=":clusterJ12_J23_w1_0" index="0" allow="pedestrian" speed="2.78" length="4.57" width="4.00" shape="-28.52,6.34 -28.51,4.34 -30.25,-1.74 -30.26,0.72 -30.15,2.75 -29.92,4.32 -29.57,5.44 -29.11,6.12"/>
    </edge>
    <edge id=":clusterJ12_J23_w2" function="walkingarea">
        <lane id=":clusterJ12_J23_w2_0" index="0" allow="pedestrian" speed="2.78" length="4.64" width="4.00" shape="-33.45,-1.83 -35.51,4.33 -35.51,6.33 -34.94,6.10 -34.46,5.42 -34.07,4.29 -33.77,2.71 -33.56,0.67"/>
    </edge>
    <edge id=":clusterJ14_J17_0" function="internal">
        <lane id=":clusterJ14_J17_0_0" index="0" disallow="pedestrian" speed="13.89" length="8.30" shape="19.85,13.24 17.44,12.95 15.84,12.30 14.25,11.65 11.84,11.34"/>
    </edge>
    <edge id=":clusterJ14_J17_1" function="internal">
        <lane id=":clusterJ14_J17_1_0" index="0" disallow="pedestrian" speed="13.89" length="8.83" shape="11.85,8.14 14.39,7.45 15.85,5.90 17.31,4.35 19.85,3.64"/>
        <lane id=":clusterJ14_J17_1_1" index="1" disallow="pedestrian" speed="13.89" length="8.83" shape="11.85,8.14 14.24,7.95 15.85,7.50 17.46,7.05 19.85,6.84"/>
    </edge>
    <edge id=":clusterJ14_J17_c0" function="crossing" crossingEdges="E8 -E8">
        <lane id=":clusterJ14_J17_c0_0" index="0" allow="pedestrian" speed="2.78" length="12.80" width="4.00" shape="17.85,2.04 17.85,14.84" outlineShape="19.85,2.04 19.85,14.94 19.85,15.04 19.85,14.84 18.11,14.70 16.85,14.35 15.85,13.90 15.85,4.31 16.76,3.21 17.98,2.38"/>
    </edge>
    <edge id=":clusterJ14_J17_c1" function="crossing" crossingEdges="-E6 E6">
        <lane id=":clusterJ14_J17_c1_0" index="0" allow="pedestrian" speed="2.78" length="6.40" width="4.00" shape="13.83,12.95 13.86,6.55" outlineShape="11.83,12.94 11.86,6.54 13.73,6.22 14.95,5.39 15.86,4.30 15.83,13.89 14.83,13.44 13.57,13.09"/>
    </edge>
    <edge id=":clusterJ14_J17_w0" function="walkingarea">
        <lane id=":clusterJ14_J17_w0_0" index="0" allow="pedestrian" speed="2.78" length="5.06" width="4.00" shape="19.85,2.04 11.87,4.54 11.86,6.54 13.73,6.22 14.95,5.39 15.86,4.30 16.76,3.21 17.98,2.38"/>
    </edge>
    <edge id=":clusterJ14_J17_w1" function="walkingarea">
        <lane id=":clusterJ14_J17_w1_0" index="0" allow="pedestrian" speed="2.78" length="4.26" width="4.00" shape="11.83,12.94 11.82,14.94 13.56,15.09 14.82,15.44 15.84,15.90 16.85,16.35 18.11,16.70 19.85,16.84 19.85,14.84 18.11,14.70 16.85,14.35 15.84,13.90 14.83,13.44 13.57,13.09"/>
    </edge>
    <edge id=":clusterJ18_J21_J22_0" function="internal">
        <lane id=":clusterJ18_J21_J22_0_0" index="0" disallow="pedestrian" speed="13.89" length="20.80" shape="79.21,-1.88 78.89,18.91"/>
    </edge>
    <edge id=":clusterJ18_J21_J22_1" function="internal">
        <lane id=":clusterJ18_J21_J22_1_0" index="0" disallow="pedestrian" speed="8.74" length="5.53" shape="79.21,-1.88 78.57,3.33 78.46,3.58"/>
    </edge>
    <edge id=":clusterJ18_J21_J22_6" function="internal">
        <lane id=":clusterJ18_J21_J22_6_0" index="0" disallow="pedestrian" speed="8.74" length="11.39" shape="78.46,3.58 76.85,7.06 74.04,9.30 70.15,10.04"/>
    </edge>
    <edge id=":clusterJ18_J21_J22_2" function="internal">
        <lane id=":clusterJ18_J21_J22_2_0" index="0" disallow="pedestrian" speed="6.59" length="9.19" shape="70.15,3.64 72.68,3.29 74.50,2.25 75.61,0.51 76.01,-1.93"/>
    </edge>
    <edge id=":clusterJ18_J21_J22_3" function="internal">
        <lane id=":clusterJ18_J21_J22_3_0" index="0" disallow="pedestrian" speed="8.65" length="16.94" shape="70.15,6.84 74.04,7.60 76.80,9.86 78.41,13.63 78.89,18.91"/>
    </edge>
    <edge id=":clusterJ18_J21_J22_4" function="internal">
        <lane id=":clusterJ18_J21_J22_4_0" index="0" disallow="pedestrian" speed="6.47" length="9.03" shape="75.69,18.87 75.38,16.41 74.35,14.65 72.61,13.59 70.15,13.24"/>
    </edge>
    <edge id=":clusterJ18_J21_J22_5" function="internal">
        <lane id=":clusterJ18_J21_J22_5_0" index="0" disallow="pedestrian" speed="13.89" length="20.80" shape="75.69,18.87 76.01,-1.93"/>
    </edge>

    <edge id="-E4" from="clusterJ12_J23" to="J11" priority="-1" shape="-31.26,9.53 -89.98,9.53">
        <lane id="-E4_0" index="0" allow="pedestrian" speed="13.89" length="54.47" width="2.00" shape="-35.51,13.73 -89.98,13.73"/>
        <lane id="-E4_1" index="1" disallow="pedestrian" speed="13.89" length="54.47" shape="-35.51,11.13 -89.98,11.13"/>
    </edge>
    <edge id="-E6" from="clusterJ14_J17" to="clusterJ12_J23" priority="-1" shape="13.29,9.75 -31.26,9.53">
        <lane id="-E6_0" index="0" allow="pedestrian" speed="13.89" length="40.38" width="2.00" shape="11.83,13.94 -28.56,13.74"/>
        <lane id="-E6_1" index="1" disallow="pedestrian" speed="13.89" length="40.38" shape="11.84,11.34 -28.54,11.14"/>
    </edge>
    <edge id="-E8" from="clusterJ18_J21_J22" to="clusterJ14_J17" priority="-1" shape="72.11,8.44 18.41,8.44">
        <lane id="-E8_0" index="0" disallow="pedestrian" speed="13.89" length="50.30" shape="70.15,13.24 19.85,13.24"/>
        <lane id="-E8_1" index="1" disallow="pedestrian" speed="13.89" length="50.30" shape="70.15,10.04 19.85,10.04"/>
    </edge>
    <edge id="-E9" from="J20" to="clusterJ18_J21_J22" priority="-1" shape="78.21,-41.78 77.52,3.96">
        <lane id="-E9_0" index="0" disallow="pedestrian" speed="13.89" length="39.87" shape="79.81,-41.75 79.21,-1.88"/>
    </edge>
    <edge id="-E9.45" from="clusterJ18_J21_J22" to="J19" priority="-1" shape="77.52,3.96 76.91,44.17">
        <lane id="-E9.45_0" index="0" disallow="pedestrian" speed="13.89" length="25.28" shape="78.89,18.91 78.51,44.20"/>
    </edge>
    <edge id="E10" from="clusterJ12_J23" to="J24" priority="-1" shape="-30.25,-1.74 -29.08,-46.58">
        <lane id="E10_0" index="0" disallow="pedestrian" speed="13.89" length="44.85" shape="-31.85,-1.79 -30.68,-46.62"/>
    </edge>
    <edge id="E4" from="J11" to="clusterJ12_J23" priority="-1" shape="-89.98,9.53 -31.26,9.53">
        <lane id="E4_0" index="0" allow="pedestrian" speed="13.89" length="54.47" width="2.00" shape="-89.98,5.33 -35.51,5.33"/>
        <lane id="E4_1" index="1" disallow="pedestrian" speed="13.89" length="54.47" shape="-89.98,7.93 -35.51,7.93"/>
    </edge>
    <edge id="E6" from="clusterJ12_J23" to="clusterJ14_J17" priority="-1" shape="-31.26,9.53 13.29,9.75">
        <lane id="E6_0" index="0" allow="pedestrian" speed="13.89" length="40.38" width="2.00" shape="-28.52,5.34 11.87,5.54"/>
        <lane id="E6_1" index="1" disallow="pedestrian" speed="13.89" length="40.38" shape="-28.53,7.94 11.85,8.14"/>
    </edge>
    <edge id="E8" from="clusterJ14_J17" to="clusterJ18_J21_J22" priority="-1" shape="18.41,8.44 72.11,8.44">
        <lane id="E8_0" index="0" disallow="pedestrian" speed="13.89" length="50.30" shape="19.85,3.64 70.15,3.64"/>
        <lane id="E8_1" index="1" disallow="pedestrian" speed="13.89" length="50.30" shape="19.85,6.84 70.15,6.84"/>
    </edge>
    <edge id="E9" from="J19" to="clusterJ18_J21_J22" priority="-1" shape="76.91,44.17 77.58,-0.05">
        <lane id="E9_0" index="0" disallow="pedestrian" speed="13.89" length="25.28" shape="75.31,44.15 75.69,18.87"/>
    </edge>
    <edge id="E9.44" from="clusterJ18_J21_J22" to="J20" priority="-1" shape="77.58,-0.05 78.21,-41.78">
        <lane id="E9.44_0" index="0" disallow="pedestrian" speed="13.89" length="39.87" shape="76.01,-1.93 76.61,-41.80"/>
    </edge>

    <tlLogic id="clusterJ12_J23" type="static" programID="0" offset="0">
        <phase duration="72" state="GgGrGr"/>
        <phase duration="5"  state="GgGrrr"/>
        <phase duration="3"  state="yyyrrr"/>
        <phase duration="5"  state="rrrGGG"/>
        <phase duration="5"  state="rrrrrr"/>
    </tlLogic>
    <tlLogic id="clusterJ14_J17" type="static" programID="0" offset="0">
        <phase duration="77" state="GGGrr"/>
        <phase duration="3"  state="yyyrr"/>
        <phase duration="5"  state="rrrGG"/>
        <phase duration="5"  state="rrrrr"/>
    </tlLogic>
    <tlLogic id="clusterJ18_J21_J22" type="static" programID="0" offset="0">
        <phase duration="42" state="GgrrGG"/>
        <phase duration="3"  state="yyrrGy"/>
        <phase duration="42" state="rrGGGr"/>
        <phase duration="3"  state="rryyGr"/>
    </tlLogic>

    <junction id="J11" type="dead_end" x="-89.98" y="9.53" incLanes="-E4_0 -E4_1" intLanes="" shape="-89.98,9.53 -89.98,14.73 -89.98,9.53"/>
    <junction id="J19" type="dead_end" x="76.91" y="44.17" incLanes="-E9.45_0" intLanes="" shape="76.91,44.17 80.11,44.22 76.91,44.17"/>
    <junction id="J20" type="dead_end" x="78.21" y="-41.78" incLanes="E9.44_0" intLanes="" shape="78.21,-41.78 75.01,-41.82 78.21,-41.78"/>
    <junction id="J24" type="dead_end" x="-29.08" y="-46.58" incLanes="E10_0" intLanes="" shape="-32.28,-46.66 -29.08,-46.58"/>
    <junction id="clusterJ12_J23" type="traffic_light" x="-30.76" y="3.89" incLanes="-E6_0 -E6_1 E4_0 E4_1 :clusterJ12_J23_w1_0 :clusterJ12_J23_w2_0 :clusterJ12_J23_w0_0" intLanes=":clusterJ12_J23_0_0 :clusterJ12_J23_3_0 :clusterJ12_J23_2_0 :clusterJ12_J23_c0_0 :clusterJ12_J23_c1_0 :clusterJ12_J23_c2_0" shape="-28.56,14.74 -28.51,4.34 -29.55,3.66 -29.89,2.82 -30.13,1.63 -30.25,0.11 -30.25,-1.74 -33.45,-1.83 -33.75,1.59 -34.04,2.79 -34.43,3.65 -34.92,4.16 -35.51,4.33 -35.51,14.73">
        <request index="0" response="000000" foes="101000" cont="0"/>
        <request index="1" response="010000" foes="110000" cont="1"/>
        <request index="2" response="000000" foes="101000" cont="0"/>
        <request index="3" response="000101" foes="000101" cont="0"/>
        <request index="4" response="000000" foes="000010" cont="0"/>
        <request index="5" response="000111" foes="000111" cont="0"/>
    </junction>
    <junction id="clusterJ14_J17" type="traffic_light" x="15.85" y="9.10" incLanes="-E8_0 -E8_1 E6_0 E6_1 :clusterJ14_J17_w0_0 :clusterJ14_J17_w1_0" intLanes=":clusterJ14_J17_0_0 :clusterJ14_J17_1_0 :clusterJ14_J17_1_1 :clusterJ14_J17_c0_0 :clusterJ14_J17_c1_0" shape="19.85,14.84 19.85,2.04 16.85,2.70 14.87,3.90 13.62,4.36 11.87,4.54 11.82,14.94">
        <request index="0" response="00000" foes="11000" cont="0"/>
        <request index="1" response="00000" foes="11000" cont="0"/>
        <request index="2" response="00000" foes="11000" cont="0"/>
        <request index="3" response="00111" foes="00111" cont="0"/>
        <request index="4" response="00111" foes="00111" cont="0"/>
    </junction>
    <junction id="clusterJ18_J21_J22" type="traffic_light" x="75.74" y="4.12" incLanes="-E9_0 E8_0 E8_1 E9_0" intLanes=":clusterJ18_J21_J22_0_0 :clusterJ18_J21_J22_6_0 :clusterJ18_J21_J22_2_0 :clusterJ18_J21_J22_3_0 :clusterJ18_J21_J22_4_0 :clusterJ18_J21_J22_5_0" shape="80.81,-1.86 74.41,-1.96 73.91,0.26 73.31,1.04 72.49,1.60 71.43,1.93 70.15,2.04 70.15,14.84 72.37,15.29 73.14,15.84 73.68,16.62 74.00,17.62 74.09,18.84 80.49,18.94">
        <request index="0" response="000000" foes="001000" cont="0"/>
        <request index="1" response="100000" foes="101000" cont="1"/>
        <request index="2" response="100000" foes="100000" cont="0"/>
        <request index="3" response="100011" foes="100011" cont="0"/>
        <request index="4" response="000000" foes="000000" cont="0"/>
        <request index="5" response="000000" foes="001110" cont="0"/>
    </junction>

    <junction id=":clusterJ12_J23_3_0" type="internal" x="-32.15" y="2.21" incLanes=":clusterJ12_J23_1_0" intLanes=":clusterJ12_J23_c1_0 :clusterJ12_J23_c2_0"/>
    <junction id=":clusterJ18_J21_J22_6_0" type="internal" x="78.46" y="3.58" incLanes=":clusterJ18_J21_J22_1_0 E9_0" intLanes=":clusterJ18_J21_J22_3_0 :clusterJ18_J21_J22_5_0"/>

    <connection from="-E6" to="-E4" fromLane="1" toLane="1" via=":clusterJ12_J23_0_0" tl="clusterJ12_J23" linkIndex="0" dir="s" state="O"/>
    <connection from="-E8" to="-E6" fromLane="0" toLane="1" via=":clusterJ14_J17_0_0" tl="clusterJ14_J17" linkIndex="0" dir="s" state="O"/>
    <connection from="-E9" to="-E9.45" fromLane="0" toLane="0" via=":clusterJ18_J21_J22_0_0" tl="clusterJ18_J21_J22" linkIndex="0" dir="s" state="O"/>
    <connection from="-E9" to="-E8" fromLane="0" toLane="1" via=":clusterJ18_J21_J22_1_0" tl="clusterJ18_J21_J22" linkIndex="1" dir="l" state="o"/>
    <connection from="E4" to="E10" fromLane="1" toLane="0" via=":clusterJ12_J23_1_0" tl="clusterJ12_J23" linkIndex="1" dir="r" state="o"/>
    <connection from="E4" to="E6" fromLane="1" toLane="1" via=":clusterJ12_J23_2_0" tl="clusterJ12_J23" linkIndex="2" dir="s" state="O"/>
    <connection from="E6" to="E8" fromLane="1" toLane="0" via=":clusterJ14_J17_1_0" tl="clusterJ14_J17" linkIndex="1" dir="s" state="O"/>
    <connection from="E6" to="E8" fromLane="1" toLane="1" via=":clusterJ14_J17_1_1" tl="clusterJ14_J17" linkIndex="2" dir="s" state="O"/>
    <connection from="E8" to="E9.44" fromLane="0" toLane="0" via=":clusterJ18_J21_J22_2_0" tl="clusterJ18_J21_J22" linkIndex="2" dir="r" state="o"/>
    <connection from="E8" to="-E9.45" fromLane="1" toLane="0" via=":clusterJ18_J21_J22_3_0" tl="clusterJ18_J21_J22" linkIndex="3" dir="l" state="o"/>
    <connection from="E9" to="-E8" fromLane="0" toLane="0" via=":clusterJ18_J21_J22_4_0" tl="clusterJ18_J21_J22" linkIndex="4" dir="r" state="O"/>
    <connection from="E9" to="E9.44" fromLane="0" toLane="0" via=":clusterJ18_J21_J22_5_0" tl="clusterJ18_J21_J22" linkIndex="5" dir="s" state="O"/>

    <connection from=":clusterJ12_J23_0" to="-E4" fromLane="0" toLane="1" dir="s" state="M"/>
    <connection from=":clusterJ12_J23_1" to="E10" fromLane="0" toLane="0" via=":clusterJ12_J23_3_0" dir="r" state="m"/>
    <connection from=":clusterJ12_J23_3" to="E10" fromLane="0" toLane="0" dir="r" state="m"/>
    <connection from=":clusterJ12_J23_2" to="E6" fromLane="0" toLane="1" dir="s" state="M"/>
    <connection from=":clusterJ14_J17_0" to="-E6" fromLane="0" toLane="1" dir="s" state="M"/>
    <connection from=":clusterJ14_J17_1" to="E8" fromLane="0" toLane="0" dir="s" state="M"/>
    <connection from=":clusterJ14_J17_1" to="E8" fromLane="1" toLane="1" dir="s" state="M"/>
    <connection from=":clusterJ18_J21_J22_0" to="-E9.45" fromLane="0" toLane="0" dir="s" state="M"/>
    <connection from=":clusterJ18_J21_J22_1" to="-E8" fromLane="0" toLane="1" via=":clusterJ18_J21_J22_6_0" dir="l" state="m"/>
    <connection from=":clusterJ18_J21_J22_6" to="-E8" fromLane="0" toLane="1" dir="l" state="M"/>
    <connection from=":clusterJ18_J21_J22_2" to="E9.44" fromLane="0" toLane="0" dir="r" state="M"/>
    <connection from=":clusterJ18_J21_J22_3" to="-E9.45" fromLane="0" toLane="0" dir="l" state="M"/>
    <connection from=":clusterJ18_J21_J22_4" to="-E8" fromLane="0" toLane="0" dir="r" state="M"/>
    <connection from=":clusterJ18_J21_J22_5" to="E9.44" fromLane="0" toLane="0" dir="s" state="M"/>

    <connection from=":J11_w0" to="E4" fromLane="0" toLane="0" dir="s" state="M"/>
    <connection from="-E4" to=":J11_w0" fromLane="0" toLane="0" dir="s" state="M"/>
    <connection from=":clusterJ12_J23_c0" to=":clusterJ12_J23_w0" fromLane="0" toLane="0" dir="s" state="M"/>
    <connection from=":clusterJ12_J23_c1" to=":clusterJ12_J23_w1" fromLane="0" toLane="0" dir="s" state="M"/>
    <connection from=":clusterJ12_J23_c2" to=":clusterJ12_J23_w2" fromLane="0" toLane="0" dir="s" state="M"/>
    <connection from=":clusterJ12_J23_w0" to=":clusterJ12_J23_c2" fromLane="0" toLane="0" tl="clusterJ12_J23" linkIndex="5" dir="s" state="m"/>
    <connection from=":clusterJ12_J23_w0" to="-E4" fromLane="0" toLane="0" dir="s" state="M"/>
    <connection from="-E6" to=":clusterJ12_J23_w0" fromLane="0" toLane="0" dir="s" state="M"/>
    <connection from=":clusterJ12_J23_w1" to=":clusterJ12_J23_c0" fromLane="0" toLane="0" tl="clusterJ12_J23" linkIndex="3" dir="s" state="m"/>
    <connection from=":clusterJ12_J23_w1" to="E6" fromLane="0" toLane="0" dir="s" state="M"/>
    <connection from=":clusterJ12_J23_w2" to=":clusterJ12_J23_c1" fromLane="0" toLane="0" tl="clusterJ12_J23" linkIndex="4" dir="s" state="m"/>
    <connection from="E4" to=":clusterJ12_J23_w2" fromLane="0" toLane="0" dir="s" state="M"/>
    <connection from=":clusterJ14_J17_c0" to=":clusterJ14_J17_w1" fromLane="0" toLane="0" dir="s" state="M"/>
    <connection from=":clusterJ14_J17_c1" to=":clusterJ14_J17_w0" fromLane="0" toLane="0" dir="s" state="M"/>
    <connection from=":clusterJ14_J17_w0" to=":clusterJ14_J17_c0" fromLane="0" toLane="0" tl="clusterJ14_J17" linkIndex="3" dir="s" state="m"/>
    <connection from="E6" to=":clusterJ14_J17_w0" fromLane="0" toLane="0" dir="s" state="M"/>
    <connection from=":clusterJ14_J17_w1" to=":clusterJ14_J17_c1" fromLane="0" toLane="0" tl="clusterJ14_J17" linkIndex="4" dir="s" state="m"/>
    <connection from=":clusterJ14_J17_w1" to="-E6" fromLane="0" toLane="0" dir="s" state="M"/>
</net>
